
     RDKit          3D

  6  6  0  0  0  0  0  0  0  0999 V2000
   -1.2131   -0.6884    0.0000 C   0  0  0  0  0  0  0  0  0  0  0  0
   -1.2028    0.7064    0.0001 C   0  0  0  0  0  0  0  0  0  0  0  0
   -0.0103   -1.3948    0.0000 C   0  0  0  0  0  0  0  0  0  0  0  0
    0.0104    1.3948   -0.0001 C   0  0  0  0  0  0  0  0  0  0  0  0
    1.2028   -0.7063    0.0000 C   0  0  0  0  0  0  0  0  0  0  0  0
    1.2131    0.6884    0.0000 C   0  0  0  0  0  0  0  0  0  0  0  0
  1  2  2  0
  1  3  1  0
  2  4  1  0
  3  5  2  0
  4  6  2  0
  5  6  1  0
M  END
> <Location>
file:/C:/app/tmpmmcpb0ep/ligandso4cfz4x7.sdf

> <URL>
file:/C:/app/file:/C:/app/tmpmmcpb0ep/ligandso4cfz4x7.sdf

> <Filename>
ligandso4cfz4x7.sdf

> <Molecule Name>
241

> <User Initials>
Na

> <Program Name>
nome Inc

> <Date>


> <Dimensionality>
r

> <Scaling Factor (1)>


> <Scaling Factor (2)>


> <Energy>


> <Internal Registry Number>


> <Comments>


> <Atom Count>
0

> <Bond Count>
0

> <Atom List Count>
0

> <stext Entries count>
0

> <Chiral>
false

> <Molfile Version>
V3000

$$$$
